Fe_FCC
  MatStudio         3D                             0

 13  0  0  0  0  0  0  0  0  0999 V2000
    0.0000    3.4770    0.0000 Fe  0  2  0  0  0  0  0  0  0  0
    3.4770    3.4770    0.0000 Fe  0  2  0  0  0  0  0  0  0  0
    0.0000    3.4770    3.4770 Fe  0  2  0  0  0  0  0  0  0  0
    3.4770    3.4770    3.4770 Fe  0  2  0  0  0  0  0  0  0  0
    0.0000    1.7385    1.7385 Fe  0  2  0  0  0  0  0  0  0  0
    3.4770    1.7385    1.7385 Fe  0  2  0  0  0  0  0  0  0  0
    0.0000    5.2155    1.7385 Fe  0  2  0  0  0  0  0  0  0  0
    3.4770    5.2155    1.7385 Fe  0  2  0  0  0  0  0  0  0  0
    1.7385    3.4770    1.7385 Fe  0  2  0  0  0  0  0  0  0  0
    1.7385    1.7385    0.0000 Fe  0  2  0  0  0  0  0  0  0  0
    1.7385    5.2155    0.0000 Fe  0  2  0  0  0  0  0  0  0  0
    1.7385    1.7385    3.4770 Fe  0  2  0  0  0  0  0  0  0  0
    1.7385    5.2155    3.4770 Fe  0  2  0  0  0  0  0  0  0  0
M  END
